<?xml version="1.0" encoding="UTF-8"?>
<configuration>
    <input>
        <net-file value="net.xml"/>
        <route-files value="route.xml"/>
    </input>
    <time>
        <begin value="0"/>
        <end value="43200"/>
        <step-length value="0.1"/>
    </time>
</configuration>